%mem=15gb
%nproc=8
#b3lyp/gen pseudo=read opt freq=noraman scrf=(solvent=water)

Estrutura 68

-2 1
 Pt                -0.31954889    0.33834586    0.00000000
 N                  1.67045111    0.33834586    0.00000000
 O                  2.12378404    1.35457427   -0.78190094
 O                  2.12378404    0.50737740    1.27103013
 N                 -0.31954889    2.32834586    0.00000000
 N                 -2.30954889    0.33834586    0.00000000
 O                 -2.76288182   -0.04279205    1.22426433
 O                 -2.76288182    1.58915875   -0.28205737
 O                  0.38493728    2.78167879    1.07134891
 O                  0.25602310    2.78167879   -1.14577753
 N                 -0.31954889    0.33834586   -1.99000000
 O                  0.52851004   -0.62336372   -2.44333293
 O                 -1.57644334    0.08476040   -2.44333293
 N                 -0.31954889    0.33834586    1.99000000
 O                 -1.02709640   -0.73098373    2.44333293
 O                 -0.89184143    1.48576492    2.44333293
 N                 -0.31954889   -1.65165414    0.00000000
 O                  0.94992350   -2.10498707   -0.18035831
 O                 -1.11048022   -2.10498707   -1.00921598

N     0
S    5   1.00
   1712.8415853             -0.53934125305D-02
    257.64812677            -0.40221581118D-01
     58.458245853           -0.17931144990
     16.198367905           -0.46376317823
      5.0052600809          -0.44171422662
S    1   1.00
      0.58731856571          1.0000000
S    1   1.00
      0.18764592253          1.0000000
P    3   1.00
     13.571470233           -0.40072398852D-01
      2.9257372874          -0.21807045028
      0.79927750754         -0.51294466049
P    1   1.00
      0.21954348034          1.0000000
D    1   1.00
      1.0000000              1.0000000
****
O     0
S    5   1.00
   2266.1767785             -0.53431809926D-02
    340.87010191            -0.39890039230D-01
     77.363135167           -0.17853911985
     21.479644940           -0.46427684959
      6.6589433124          -0.44309745172
S    1   1.00
      0.80975975668          1.0000000
S    1   1.00
      0.25530772234          1.0000000
P    3   1.00
     17.721504317            0.43394573193D-01
      3.8635505440           0.23094120765
      1.0480920883           0.51375311064
P    1   1.00
      0.27641544411          1.0000000
D    1   1.00
      1.2000000              1.0000000
****
Pt 0
LANL2DZ
****

Pt 0
LANL2DZ







































