%mem=15gb
%nproc=8
#b3lyp/gen pseudo=read opt freq=noraman scrf=(solvent=water)

Estrutura 59

-2 1
Pt      -0.0344530000     -0.1501290000     -0.1517540000                 
N       -1.1187120000      0.1084130000     -1.9472740000                 
O       -2.3200880000     -0.1055980000     -1.9422760000                 
O       -0.4873190000      0.4401340000     -2.9347490000                 
N        1.4693770000     -1.1000680000     -1.2926120000                 
O        1.0790210000     -1.9040610000     -2.1303010000                 
O        2.6413690000     -0.8348300000     -1.1006160000                 
N       -0.9235070000     -2.0652650000      0.1194770000                 
O       -0.1606410000     -3.0079730000      0.2679930000                 
O       -2.1359970000     -2.1601780000      0.1144460000                 
Br       1.3098430000     -0.5103620000      2.0500770000                 
Br      -1.9355450000      1.0386540000      1.1732010000                 
Br       1.1333160000      2.1485240000     -0.4951730000  

N     0
S    5   1.00
   1712.8415853             -0.53934125305D-02
    257.64812677            -0.40221581118D-01
     58.458245853           -0.17931144990
     16.198367905           -0.46376317823
      5.0052600809          -0.44171422662
S    1   1.00
      0.58731856571          1.0000000
S    1   1.00
      0.18764592253          1.0000000
P    3   1.00
     13.571470233           -0.40072398852D-01
      2.9257372874          -0.21807045028
      0.79927750754         -0.51294466049
P    1   1.00
      0.21954348034          1.0000000
D    1   1.00
      1.0000000              1.0000000
****
O     0
S    5   1.00
   2266.1767785             -0.53431809926D-02
    340.87010191            -0.39890039230D-01
     77.363135167           -0.17853911985
     21.479644940           -0.46427684959
      6.6589433124          -0.44309745172
S    1   1.00
      0.80975975668          1.0000000
S    1   1.00
      0.25530772234          1.0000000
P    3   1.00
     17.721504317            0.43394573193D-01
      3.8635505440           0.23094120765
      1.0480920883           0.51375311064
P    1   1.00
      0.27641544411          1.0000000
D    1   1.00
      1.2000000              1.0000000
****
Br     0
S    6   1.00
 113286.3877600              0.14283037779D-02
  17009.6263030              0.10950417496D-01
   3870.1842567              0.54421006604D-01
   1093.0357227              0.19047907695
    356.39721797             0.39024642737
    123.12539643             0.30814432514
S    3   1.00
    236.74084007            -0.11228065671
     28.468661070            0.64775962312
     11.883443722            0.44235575986
S    3   1.00
     21.269633312           -0.22642576323
      3.6129226841           0.73823712008
      1.6626648969           0.42683868694
S    1   1.00
      0.34823793232          1.0000000
S    1   1.00
      0.13019031394          1.0000000
P    5   1.00
   1560.2801881              0.87166669072D-02
    368.47859205             0.66243637420D-01
    117.22978849             0.26495610385
     42.648909248            0.53839160587
     16.087225096            0.36579387888
P    3   1.00
      8.6352810058           0.34248787366
      3.5613665502           0.57500678213
      1.5292626609           0.24330394172
P    1   1.00
      0.53064294848          1.0000000
P    1   1.00
      0.15702758965          1.0000000
D    4   1.00
    104.85518642             0.22650147581D-01
     30.281143688            0.13455483230
     10.651394267            0.36474454537
      3.8699456233           0.49044587056
D    1   1.00
      1.3240876762            .27137289040
D    1   1.00
      0.3890000              1.0000000
****
Pt 0
LANL2DZ
****

Pt 0
LANL2DZ

















