%mem=15gb
%nproc=8
#b3lyp/gen pseudo=read opt freq=noraman scrf=(solvent=water)

Estrutura 66

-2 1
Pt      -0.0060550000      0.0229690000     -0.0826810000                 
N       -1.7025640000     -1.2816420000     -0.2924140000                 
O       -1.8392990000     -2.1467420000      0.5598810000                 
O       -2.4729900000     -1.1347130000     -1.2227540000                 
N        0.0647350000     -0.5133960000      1.9500910000                 
N        1.6763010000      1.3110660000      0.1933720000                 
O        1.6190970000      2.4424450000     -0.2550150000                 
O        2.6381370000      0.8748600000      0.8019450000                 
O       -0.8980910000     -0.2363210000      2.6397710000                 
O        1.0514890000     -1.0966340000      2.3526350000                 
N        1.2947000000     -1.5942130000     -0.5865180000                 
O        0.9661420000     -2.7249230000     -0.2675830000                 
O        2.3284700000     -1.3382760000     -1.1788380000                 
N       -1.2893470000      1.6498360000      0.4164070000                 
O       -2.3413540000      1.7895700000     -0.1818480000                 
O       -0.9180710000      2.3983090000      1.3067940000                 
Cl      -0.0531020000      0.6227200000     -2.4563150000

N     0
S    5   1.00
   1712.8415853             -0.53934125305D-02
    257.64812677            -0.40221581118D-01
     58.458245853           -0.17931144990
     16.198367905           -0.46376317823
      5.0052600809          -0.44171422662
S    1   1.00
      0.58731856571          1.0000000
S    1   1.00
      0.18764592253          1.0000000
P    3   1.00
     13.571470233           -0.40072398852D-01
      2.9257372874          -0.21807045028
      0.79927750754         -0.51294466049
P    1   1.00
      0.21954348034          1.0000000
D    1   1.00
      1.0000000              1.0000000
****
O     0
S    5   1.00
   2266.1767785             -0.53431809926D-02
    340.87010191            -0.39890039230D-01
     77.363135167           -0.17853911985
     21.479644940           -0.46427684959
      6.6589433124          -0.44309745172
S    1   1.00
      0.80975975668          1.0000000
S    1   1.00
      0.25530772234          1.0000000
P    3   1.00
     17.721504317            0.43394573193D-01
      3.8635505440           0.23094120765
      1.0480920883           0.51375311064
P    1   1.00
      0.27641544411          1.0000000
D    1   1.00
      1.2000000              1.0000000
****
Cl     0
S    5   1.00
  10449.8275660              0.19708362484D-02
   1571.7365221              0.14754727977D-01
    357.12065523             0.66679112875D-01
    100.25185935             0.17228924084
     30.812727554            0.15883786100
S    3   1.00
     51.923789434           -0.10009298909
      5.7045760975           0.60841752753
      2.3508376809           0.54352153355
S    1   1.00
      0.44605124672          1.0000000
S    1   1.00
      0.16848856190          1.0000000
P    5   1.00
    307.66790569            -0.87801484118D-02
     72.102015515           -0.63563355471D-01
     22.532680262           -0.24016428276
      7.8991765444          -0.47798866557
      2.8767268321          -0.38515850005
P    1   1.00
      0.77459363955          1.0000000
P    1   1.00
      0.21037699698          1.0000000
D    1   1.00
      0.6500000              1.0000000
****
Pt 0
LANL2DZ
****

Pt 0
LANL2DZ    


























